application_data/rdt/data/8500_Network/IEEE8500u_Power_elem_kVA.txt

CIRCUIT ELEMENT POWER FLOW

(Power Flow into element from indicated Bus)

Power Delivery Elements

  Bus                Phase     kW     +j   kvar         kVA         PF

ELEMENT = "Vsource.SOURCE"
SOURCEBUS                1        -0.0 +j      6.2        6.2      -0.0142
SOURCEBUS                2        -0.0 +j      5.9        5.9      -0.0135
SOURCEBUS                3         0.2 +j      6.0        6.0       0.0273
   TERMINAL TOTAL ............    -0.0 +j     18.1       18.1      -0.0001
SOURCEBUS                0         0.0 +j      0.0        0.0       1.0000
SOURCEBUS                0         0.0 +j      0.0        0.0       1.0000
SOURCEBUS                0         0.0 +j      0.0        0.0       1.0000
   TERMINAL TOTAL ............     0.0 +j      0.0        0.0       1.0000

ELEMENT = "Line.HVMV_SUB_CONNECTOR"
_HVMV_SUB_LSB            1         0.0 +j     -6.4        6.4      -0.0002
_HVMV_SUB_LSB            2         0.0 +j     -6.1        6.1      -0.0000
_HVMV_SUB_LSB            3         0.0 +j     -5.8        5.8      -0.0000
   TERMINAL TOTAL ............     0.0 +j    -18.2       18.2      -0.0001
HVMV_SUB_48332           1        -0.0 +j      6.4        6.4      -0.0002
HVMV_SUB_48332           2        -0.0 +j      6.1        6.1      -0.0000
HVMV_SUB_48332           3        -0.0 +j      5.8        5.8      -0.0000
   TERMINAL TOTAL ............    -0.0 +j     18.2       18.2      -0.0001

ELEMENT = "Line.LN5502549-1"
M1009763                 2         0.0 +j     -0.0        0.0      -0.0000
   TERMINAL TOTAL ............     0.0 +j     -0.0        0.0      -0.0000
L2673322                 2        -0.0 +j      0.0        0.0      -0.0000
   TERMINAL TOTAL ............    -0.0 +j      0.0        0.0      -0.0000

ELEMENT = "Line.LN6259988-1"
M1069148                 3         0.0 +j     -0.0        0.0      -0.0000
   TERMINAL TOTAL ............     0.0 +j     -0.0        0.0      -0.0000
L2673309                 3        -0.0 +j     -0.0        0.0       0.0000
   TERMINAL TOTAL ............    -0.0 +j     -0.0        0.0       0.0000

ELEMENT = "Line.LN6077796-1"
M1069588                 2         0.0 +j     -0.0        0.0      -0.0000
   TERMINAL TOTAL ............     0.0 +j     -0.0        0.0      -0.0000
L2804270                 2        -0.0 +j      0.0        0.0      -0.0000
   TERMINAL TOTAL ............    -0.0 +j      0.0        0.0      -0.0000

ELEMENT = "Line.LN5835135-2"
M3036164                 2         0.0 +j     -0.2        0.2      -0.0000
   TERMINAL TOTAL ............     0.0 +j     -0.2        0.2      -0.0000
L2935553                 2        -0.0 +j      0.2        0.2      -0.0000
   TERMINAL TOTAL ............    -0.0 +j      0.2        0.2      -0.0000

ELEMENT = "Line.LN5896826-1"
M1209749                 2         0.0 +j     -0.0        0.0      -0.0000
   TERMINAL TOTAL ............     0.0 +j     -0.0        0.0      -0.0000
L2748840                 2        -0.0 +j     -0.0        0.0       0.0000
   TERMINAL TOTAL ............    -0.0 +j     -0.0        0.0       0.0000

ELEMENT = "Line.LN5714038-1"
M1108264                 2         0.0 +j     -0.0        0.0      -0.0000
   TERMINAL TOTAL ............     0.0 +j     -0.0        0.0      -0.0000
M1108263                 2        -0.0 +j      0.0        0.0      -0.0000
   TERMINAL TOTAL ............    -0.0 +j      0.0        0.0      -0.0000

ELEMENT = "Line.LN5653457-1"
L3085398                 1        -0.0 +j     -0.2        0.2       0.0011
L3085398                 2        -0.0 +j     -0.3        0.3       0.0007
L3085398                 3         0.0 +j     -0.2        0.2      -0.0032
   TERMINAL TOTAL ............     0.0 +j     -0.8        0.8      -0.0000
M1026891                 1        -0.0 +j      0.2        0.2      -0.0012
M1026891                 2        -0.0 +j      0.3        0.3      -0.0008
M1026891                 3         0.0 +j      0.1        0.1       0.0036
   TERMINAL TOTAL ............    -0.0 +j      0.7        0.7      -0.0000

ELEMENT = "Line.LN5835173-1"
L3216367                 1        -0.0 +j     -0.4        0.4       0.0004
L3216367                 2        -0.0 +j     -0.5        0.5       0.0003
L3216367                 3         0.0 +j     -0.4        0.4      -0.0008
   TERMINAL TOTAL ............     0.0 +j     -1.4        1.4      -0.0000
M1069468                 1        -0.0 +j      0.4        0.4      -0.0004
M1069468                 2        -0.0 +j      0.5        0.5      -0.0003
M1069468                 3         0.0 +j      0.4        0.4       0.0008
   TERMINAL TOTAL ............    -0.0 +j      1.3        1.3      -0.0000

ELEMENT = "Line.LN6321415-1"
M1142800                 2         0.0 +j     -0.0        0.0      -0.0000
   TERMINAL TOTAL ............     0.0 +j     -0.0        0.0      -0.0000
M1142799                 2        -0.0 +j      0.0        0.0      -0.0000
   TERMINAL TOTAL ............    -0.0 +j      0.0        0.0      -0.0000

ELEMENT = "Line.LN5565092-1"
M1047592                 3         0.0 +j     -0.0        0.0      -0.0000
   TERMINAL TOTAL ............     0.0 +j     -0.0        0.0      -0.0000
P827512                  3        -0.0 +j      0.0        0.0      -0.0000
   TERMINAL TOTAL ............    -0.0 +j      0.0        0.0      -0.0000

ELEMENT = "Line.LN6073648-1"
M1047339                 1         0.0 +j     -0.0        0.0      -0.0000
   TERMINAL TOTAL ............     0.0 +j     -0.0        0.0      -0.0000
P895104                  1        -0.0 +j      0.0        0.0      -0.0000
   TERMINAL TOTAL ............    -0.0 +j      0.0        0.0      -0.0000

ELEMENT = "Line.LN5774457-1"
M1026915                 1        -0.0 +j     -0.4        0.4       0.0003
M1026915                 2        -0.0 +j     -0.3        0.3       0.0005
M1026915                 3         0.0 +j     -0.3        0.3      -0.0012
   TERMINAL TOTAL ............     0.0 +j     -1.0        1.0      -0.0000
M1026920                 1        -0.0 +j      0.4        0.4      -0.0003
M1026920                 2        -0.0 +j      0.3        0.3      -0.0006
M1026920                 3         0.0 +j      0.3        0.3       0.0012
   TERMINAL TOTAL ............    -0.0 +j      1.0        1.0      -0.0000

ELEMENT = "Line.LN5534966-3"
N1138596                 1         0.0 +j     -0.0        0.0      -0.0000
   TERMINAL TOTAL ............     0.0 +j     -0.0        0.0      -0.0000
L3254207                 1        -0.0 +j      0.0        0.0      -0.0000
   TERMINAL TOTAL ............    -0.0 +j      0.0        0.0      -0.0000

ELEMENT = "Line.LN5859996-1"
M1069464                 2         0.0 +j     -0.0        0.0      -0.0000
   TERMINAL TOTAL ............     0.0 +j     -0.0        0.0      -0.0000
P873787                  2        -0.0 +j      0.0        0.0      -0.0000
   TERMINAL TOTAL ............    -0.0 +j      0.0        0.0      -0.0000

ELEMENT = "Line.LN6138610-2"
N1144665                 1        -0.0 +j     -1.4        1.4       0.0000
N1144665                 2        -0.0 +j     -1.0        1.0       0.0000
N1144665                 3         0.0 +j     -1.1        1.1      -0.0002
   TERMINAL TOTAL ............     0.0 +j     -3.6        3.6      -0.0000
M1047515                 1        -0.0 +j      1.4        1.4      -0.0000
M1047515                 2        -0.0 +j      1.0        1.0      -0.0000
M1047515                 3         0.0 +j      1.1        1.1       0.0001
   TERMINAL TOTAL ............    -0.0 +j      3.6        3.6      -0.0000

ELEMENT = "Line.LN6258435-3"
N1137002                 1         0.0 +j     -0.0        0.0      -0.0000
   TERMINAL TOTAL ............     0.0 +j     -0.0        0.0      -0.0000
M1047707                 1        -0.0 +j      0.0        0.0      -0.0000
   TERMINAL TOTAL ............    -0.0 +j      0.0        0.0      -0.0000

ELEMENT = "Line.LN5804790-1"
L2729406                 3         0.0 +j     -0.0        0.0      -0.0000
   TERMINAL TOTAL ............     0.0 +j     -0.0        0.0      -0.0000
L2897768                 3        -0.0 +j     -0.0        0.0       0.0000
   TERMINAL TOTAL ............    -0.0 +j     -0.0        0.0       0.0000

ELEMENT = "Line.LN6900591-14"
L3649301                 1         0.0 +j     -0.0        0.0      -0.0000
   TERMINAL TOTAL ............     0.0 +j     -0.0        0.0      -0.0000
L3649302                 1        -0.0 +j      0.0        0.0      -0.0000
   TERMINAL TOTAL ............    -0.0 +j      0.0        0.0      -0.0000

ELEMENT = "Line.LN6409873-1"
L2970842                 2         0.0 +j     -0.2        0.2      -0.0000
   TERMINAL TOTAL ............     0.0 +j     -0.2        0.2      -0.0000
M1089113                 2        -0.0 +j      0.2        0.2      -0.0000
   TERMINAL TOTAL ............    -0.0 +j      0.2        0.2      -0.0000

ELEMENT = "Line.LN6014135-1"
M1047312                 1         0.0 +j     -0.0        0.0      -0.0000
   TERMINAL TOTAL ............     0.0 +j     -0.0        0.0      -0.0000
P893163                  1        -0.0 +j      0.0        0.0      -0.0000
   TERMINAL TOTAL ............    -0.0 +j      0.0        0.0      -0.0000

ELEMENT = "Line.LN6077784-1"
L2822871                 1        -0.0 +j     -0.8        0.8       0.0003
L2822871                 2        -0.0 +j     -0.7        0.7       0.0003
L2822871                 3         0.0 +j     -0.5        0.5      -0.0009
   TERMINAL TOTAL ............     0.0 +j     -2.0        2.0      -0.0000
M1026872                 1        -0.0 +j      0.8        0.8      -0.0003
M1026872                 2        -0.0 +j      0.7        0.7      -0.0003
M1026872                 3         0.0 +j      0.5        0.5       0.0009
   TERMINAL TOTAL ............    -0.0 +j      2.0        2.0      -0.0000

ELEMENT = "Line.LN5744338-1"
M1026312                 2         0.0 +j     -0.2        0.2      -0.0000
   TERMINAL TOTAL ............     0.0 +j     -0.2        0.2      -0.0000
L2973163                 2        -0.0 +j      0.2        0.2      -0.0000
   TERMINAL TOTAL ............    -0.0 +j      0.2        0.2      -0.0000

ELEMENT = "Line.LN6991381-4"
L3728038                 1         0.0 +j     -0.0        0.0      -0.0000
   TERMINAL TOTAL ............     0.0 +j     -0.0        0.0      -0.0000
L3728039                 1        -0.0 +j      0.0        0.0      -0.0000
   TERMINAL TOTAL ............    -0.0 +j      0.0        0.0      -0.0000

ELEMENT = "Line.LN5774480-1"
M1069567                 2         0.0 +j     -0.2        0.2      -0.0000
   TERMINAL TOTAL ............     0.0 +j     -0.2        0.2      -0.0000
M1069582                 2        -0.0 +j      0.2        0.2      -0.0000
   TERMINAL TOTAL ............    -0.0 +j      0.2        0.2      -0.0000

ELEMENT = "Line.LN5986938-3"
N1140830                 1         0.0 +j     -0.0        0.0      -0.0000
   TERMINAL TOTAL ............     0.0 +j     -0.0        0.0      -0.0000
L3216351                 1        -0.0 +j      0.0        0.0      -0.0000
   TERMINAL TOTAL ............    -0.0 +j      0.0        0.0      -0.0000

ELEMENT = "Line.LN5894230-1"
L2952007                 3         0.0 +j     -0.0        0.0      -0.0000
   TERMINAL TOTAL ............     0.0 +j     -0.0        0.0      -0.0000
L2861158                 3        -0.0 +j     -0.0        0.0       0.0000
   TERMINAL TOTAL ............    -0.0 +j     -0.0        0.0       0.0000

ELEMENT = "Line.LN5683858-3"
N1140827                 1        -0.0 +j     -0.0        0.0       0.0060
N1140827                 2        -0.0 +j     -0.0        0.0       0.0028
N1140827                 3         0.0 +j     -0.0        0.0      -0.0119
   TERMINAL TOTAL ............     0.0 +j     -0.0        0.0      -0.0000
M1026726                 1        -0.0 +j      0.0        0.0      -0.0100
M1026726                 2        -0.0 +j      0.0        0.0      -0.0036
M1026726                 3         0.0 +j      0.0        0.0       0.0201
   TERMINAL TOTAL ............    -0.0 +j      0.0        0.0      -0.0000

ELEMENT = "Line.LN5920279-5"
L2730106                 1         0.0 +j     -4.1        4.1      -0.0000
L2730106                 2         0.0 +j     -3.6        3.6      -0.0000
L2730106                 3         0.0 +j     -2.9        2.9      -0.0001
   TERMINAL TOTAL ............     0.0 +j    -10.5       10.5      -0.0000
N1142099                 1        -0.0 +j      4.1        4.1      -0.0001
N1142099                 2        -0.0 +j      3.6        3.6      -0.0000
N1142099                 3         0.0 +j      2.9        2.9       0.0000
   TERMINAL TOTAL ............    -0.0 +j     10.5       10.5      -0.0000

ELEMENT = "Line.LN6439600-1"
M1026658                 1         0.0 +j     -0.0        0.0      -0.0000
   TERMINAL TOTAL ............     0.0 +j     -0.0        0.0      -0.0000
L3172805                 1        -0.0 +j     -0.0        0.0       0.0000
   TERMINAL TOTAL ............    -0.0 +j     -0.0        0.0       0.0000

ELEMENT = "Line.LN5589097-1"
P895112                  1         0.0 +j     -0.0        0.0      -0.0000
   TERMINAL TOTAL ............     0.0 +j     -0.0        0.0      -0.0000
L3048962                 1        -0.0 +j      0.0        0.0      -0.0000
   TERMINAL TOTAL ............    -0.0 +j      0.0        0.0      -0.0000

ELEMENT = "Line.LN5651975-1"
L2991914                 1        -0.0 +j     -0.8        0.8       0.0001
L2991914                 2        -0.0 +j     -0.3        0.3       0.0003
L2991914                 3         0.0 +j     -0.5        0.5      -0.0005
   TERMINAL TOTAL ............     0.0 +j     -1.6        1.6      -0.0000
M1047503                 1        -0.0 +j      0.8        0.8      -0.0002
M1047503                 2        -0.0 +j      0.3        0.3      -0.0003
M1047503                 3         0.0 +j      0.4        0.4       0.0005
   TERMINAL TOTAL ............    -0.0 +j      1.5        1.5      -0.0000

ELEMENT = "Line.LN5865236-1"
M1047751                 1         0.0 +j     -0.0        0.0      -0.0000
   TERMINAL TOTAL ............     0.0 +j     -0.0        0.0      -0.0000
L2973154                 1        -0.0 +j      0.0        0.0      -0.0000
   TERMINAL TOTAL ............    -0.0 +j      0.0        0.0      -0.0000

ELEMENT = "Line.LN5593232-1"
L3010565                 3         0.0 +j     -0.0        0.0      -0.0000
   TERMINAL TOTAL ............     0.0 +j     -0.0        0.0      -0.0000
L2897775                 3        -0.0 +j     -0.0        0.0       0.0000
   TERMINAL TOTAL ............    -0.0 +j     -0.0        0.0       0.0000

ELEMENT = "Line.LN5740283-1"
M1125955                 3         0.0 +j     -0.0        0.0      -0.0000
   TERMINAL TOTAL ............     0.0 +j     -0.0        0.0      -0.0000
M1125957                 3        -0.0 +j      0.0        0.0      -0.0000
   TERMINAL TOTAL ............    -0.0 +j      0.0        0.0      -0.0000

ELEMENT = "Line.LN6106559-1"
M1069640                 2         0.0 +j     -0.0        0.0      -0.0000
   TERMINAL TOTAL ............     0.0 +j     -0.0        0.0      -0.0000
L2804269                 2        -0.0 +j      0.0        0.0      -0.0000
   TERMINAL TOTAL ............    -0.0 +j      0.0        0.0      -0.0000

ELEMENT = "Line.LN5714056-3"
M1026702                 1        -0.0 +j     -0.6        0.6       0.0007
M1026702                 2        -0.0 +j     -0.2        0.2       0.0019
M1026702                 3         0.0 +j     -0.3        0.3      -0.0027
   TERMINAL TOTAL ............     0.0 +j     -1.1        1.1      -0.0000
N1139551                 1        -0.0 +j      0.6        0.6      -0.0007
N1139551                 2        -0.0 +j      0.2        0.2      -0.0022
N1139551                 3         0.0 +j      0.3        0.3       0.0030
   TERMINAL TOTAL ............    -0.0 +j      1.0        1.0      -0.0000

ELEMENT = "Line.LN5985355-3"
N1136355                 2         0.0 +j     -0.4        0.4      -0.0000
   TERMINAL TOTAL ............     0.0 +j     -0.4        0.4      -0.0000
L2783231                 2        -0.0 +j      0.4        0.4      -0.0000
   TERMINAL TOTAL ............    -0.0 +j      0.4        0.4      -0.0000

ELEMENT = "Line.LN5531956-1"
L2748143                 1         0.0 +j     -0.0        0.0      -0.0000
   TERMINAL TOTAL ............     0.0 +j     -0.0        0.0      -0.0000
L3251854                 1        -0.0 +j     -0.0        0.0       0.0000
   TERMINAL TOTAL ............    -0.0 +j     -0.0        0.0       0.0000

ELEMENT = "Line.LN5650048-1"
M1069610                 2         0.0 +j     -0.0        0.0      -0.0000
   TERMINAL TOTAL ............     0.0 +j     -0.0        0.0      -0.0000
M1069600                 2        -0.0 +j      0.0        0.0      -0.0000
   TERMINAL TOTAL ............    -0.0 +j      0.0        0.0      -0.0000

ELEMENT = "Line.LN6290203-1"
M1069424                 1        -0.0 +j     -0.3        0.3       0.0012
M1069424                 2        -0.0 +j     -0.4        0.4       0.0007
M1069424                 3         0.0 +j     -0.3        0.3      -0.0023
   TERMINAL TOTAL ............     0.0 +j     -1.0        1.0      -0.0000
L2935549                 1        -0.0 +j      0.3        0.3      -0.0013
L2935549                 2        -0.0 +j      0.4        0.4      -0.0008
L2935549                 3         0.0 +j      0.3        0.3       0.0024
   TERMINAL TOTAL ............    -0.0 +j      0.9        0.9      -0.0000

ELEMENT = "Line.LN6134414-1"
P895089                  3         0.0 +j     -0.0        0.0      -0.0000
   TERMINAL TOTAL ............     0.0 +j     -0.0        0.0      -0.0000
L3235242                 3        -0.0 +j      0.0        0.0      -0.0000
   TERMINAL TOTAL ............    -0.0 +j      0.0        0.0      -0.0000

ELEMENT = "Line.LN6259998-2"
M1026795                 3         0.0 +j     -0.0        0.0      -0.0000
   TERMINAL TOTAL ............     0.0 +j     -0.0        0.0      -0.0000
N1140522                 3        -0.0 +j      0.0        0.0      -0.0000
   TERMINAL TOTAL ............    -0.0 +j      0.0        0.0      -0.0000

ELEMENT = "Line.LN6078767-1"
L3030199                 1        -0.0 +j     -1.2        1.2       0.0000
L3030199                 2        -0.0 +j     -1.4        1.4       0.0000
L3030199                 3         0.0 +j     -1.6        1.6      -0.0002
   TERMINAL TOTAL ............     0.0 +j     -4.1        4.1      -0.0000
M1125934                 1        -0.0 +j      1.2        1.2      -0.0002
M1125934                 2        -0.0 +j      1.4        1.4      -0.0002
M1125934                 3         0.0 +j      1.6        1.6       0.0001
   TERMINAL TOTAL ............    -0.0 +j      4.1        4.1      -0.0000

ELEMENT = "Line.LN6017300-1"
M1069189                 3         0.0 +j     -0.0        0.0      -0.0000
   TERMINAL TOTAL ............     0.0 +j     -0.0        0.0      -0.0000
L2860487                 3        -0.0 +j     -0.0        0.0       0.0000
   TERMINAL TOTAL ............    -0.0 +j     -0.0        0.0       0.0000

ELEMENT = "Line.LN8979257-2"
221-312488               1         0.0 +j     -0.0        0.0      -0.0000
221-312488               2         0.0 +j     -0.0        0.0      -0.0000
221-312488               3         0.0 +j     -0.0        0.0      -0.0000
   TERMINAL TOTAL ............     0.0 +j     -0.0        0.0      -0.0000
M1089183                 1        -0.0 +j      0.0        0.0      -0.0000
M1089183                 2        -0.0 +j      0.0        0.0      -0.0000
M1089183                 3        -0.0 +j      0.0        0.0      -0.0000
   TERMINAL TOTAL ............    -0.0 +j      0.0        0.0      -0.0000

ELEMENT = "Line.LN81048109-1"
M1108464                 2         0.0 +j     -0.0        0.0      -0.0000
   TERMINAL TOTAL ............     0.0 +j     -0.0        0.0      -0.0000
L3102286                 2        -0.0 +j     -0.0        0.0       0.0000
   TERMINAL TOTAL ............    -0.0 +j     -0.0        0.0       0.0000

ELEMENT = "Line.293471"
F739845                  1        -0.0 +j     -0.0        0.0       0.0172
F739845                  2        -0.0 +j     -0.0        0.0       0.0165
F739845                  3         0.0 +j     -0.0        0.0      -0.0336
   TERMINAL TOTAL ............     0.0 +j     -0.0        0.0      -0.0000
293471                   1        -0.0 +j     -0.0        0.0       0.1241
293471                   2        -0.0 +j     -0.0        0.0       0.0973
293471                   3         0.0 +j     -0.0        0.0      -0.2118
   TERMINAL TOTAL ............    -0.0 +j     -0.0        0.0       0.0000

ELEMENT = "Line.LN5534965-2"
P827499                  1         0.0 +j     -0.0        0.0      -0.0000
   TERMINAL TOTAL ............     0.0 +j     -0.0        0.0      -0.0000
N1139254                 1        -0.0 +j      0.0        0.0      -0.0000
   TERMINAL TOTAL ............    -0.0 +j      0.0        0.0      -0.0000

ELEMENT = "Line.LN5655683-1"
M1026657                 1         0.0 +j     -0.2        0.2      -0.0000
   TERMINAL TOTAL ............     0.0 +j     -0.2        0.2      -0.0000
M1026656                 1        -0.0 +j      0.2        0.2      -0.0000
   TERMINAL TOTAL ............    -0.0 +j      0.2        0.2      -0.0000

ELEMENT = "Line.LN5686247-1"
M1108299                 2         0.0 +j     -0.0        0.0      -0.0000
   TERMINAL TOTAL ............     0.0 +j     -0.0        0.0      -0.0000
M1108300                 2        -0.0 +j      0.0        0.0      -0.0000
   TERMINAL TOTAL ............    -0.0 +j      0.0        0.0      -0.0000

ELEMENT = "Line.LN6048642-1"
L3198355                 2         0.0 +j     -0.0        0.0      -0.0000
   TERMINAL TOTAL ............     0.0 +j     -0.0        0.0      -0.0000
L2805037                 2        -0.0 +j     -0.0        0.0       0.0000
   TERMINAL TOTAL ............    -0.0 +j     -0.0        0.0       0.0000

ELEMENT = "Line.LN5928544-3"
N1137994                 3         0.0 +j     -0.0        0.0      -0.0000
   TERMINAL TOTAL ............     0.0 +j     -0.0        0.0      -0.0000
M1069484                 3        -0.0 +j      0.0        0.0      -0.0000
   TERMINAL TOTAL ............    -0.0 +j      0.0        0.0      -0.0000

ELEMENT = "Line.LN6108172-1"
L2860504                 1         0.0 +j     -0.0        0.0      -0.0000
   TERMINAL TOTAL ............     0.0 +j     -0.0        0.0      -0.0000
L2860493                 1        -0.0 +j     -0.0        0.0       0.0000
   TERMINAL TOTAL ............    -0.0 +j     -0.0        0.0       0.0000

ELEMENT = "Line.LN5532754-1"
M1026783                 1        -0.0 +j     -0.7        0.7       0.0000
M1026783                 2        -0.0 +j     -0.3        0.3       0.0002
M1026783                 3         0.0 +j     -0.3        0.3      -0.0003
   TERMINAL TOTAL ............     0.0 +j     -1.3        1.3      -0.0000
M1026780                 1        -0.0 +j      0.7        0.7      -0.0000
M1026780                 2        -0.0 +j      0.3        0.3      -0.0002
M1026780                 3         0.0 +j      0.3        0.3       0.0003
   TERMINAL TOTAL ............    -0.0 +j      1.3        1.3      -0.0000

ELEMENT = "Line.LN5591834-1"
P895111                  3         0.0 +j     -0.0        0.0      -0.0000
   TERMINAL TOTAL ............     0.0 +j     -0.0        0.0      -0.0000
L2895496                 3        -0.0 +j      0.0        0.0      -0.0000
   TERMINAL TOTAL ............    -0.0 +j      0.0        0.0      -0.0000

ELEMENT = "Line.LN6347196-2"
N1140819                 1        -0.0 +j     -0.3        0.3       0.0003
N1140819                 2        -0.0 +j     -0.2        0.2       0.0005
N1140819                 3         0.0 +j     -0.3        0.3      -0.0007
   TERMINAL TOTAL ............     0.0 +j     -0.7        0.7      -0.0000
M1026700                 1        -0.0 +j      0.3        0.3      -0.0003
M1026700                 2        -0.0 +j      0.2        0.2      -0.0005
M1026700                 3         0.0 +j      0.2        0.2       0.0007
   TERMINAL TOTAL ............    -0.0 +j      0.7        0.7      -0.0000

ELEMENT = "Line.LN5532741-1"
M1089173                 3         0.0 +j     -0.0        0.0      -0.0000
   TERMINAL TOTAL ............     0.0 +j     -0.0        0.0      -0.0000
L2935551                 3        -0.0 +j      0.0        0.0      -0.0000
   TERMINAL TOTAL ............    -0.0 +j      0.0        0.0      -0.0000

ELEMENT = "Line.LN5804803-1"
M1026344                 1         0.0 +j     -0.0        0.0      -0.0000
   TERMINAL TOTAL ............     0.0 +j     -0.0        0.0      -0.0000
M1026364                 1        -0.0 +j     -0.0        0.0       0.0000
   TERMINAL TOTAL ............    -0.0 +j     -0.0        0.0       0.0000

ELEMENT = "Line.LN6169248-1"
L2879070                 1        -0.0 +j     -1.2        1.2       0.0003
L2879070                 2        -0.0 +j     -0.8        0.8       0.0004
L2879070                 3         0.0 +j     -0.6        0.6      -0.0012
   TERMINAL TOTAL ............     0.0 +j     -2.6        2.6      -0.0000
L3216345                 1        -0.0 +j      1.2        1.2      -0.0003
L3216345                 2        -0.0 +j      0.8        0.8      -0.0005
L3216345                 3         0.0 +j      0.5        0.5       0.0012
   TERMINAL TOTAL ............    -0.0 +j      2.5        2.5      -0.0000

ELEMENT = "Line.LN5532786-2"
M1069428                 2         0.0 +j     -0.0        0.0      -0.0000
   TERMINAL TOTAL ............     0.0 +j     -0.0        0.0      -0.0000
N1139257                 2        -0.0 +j      0.0        0.0      -0.0000
   TERMINAL TOTAL ............    -0.0 +j      0.0        0.0      -0.0000

ELEMENT = "Line.LN5744339-1"
L2991919                 1         0.0 +j     -0.1        0.1      -0.0000
   TERMINAL TOTAL ............     0.0 +j     -0.1        0.1      -0.0000
M1026361                 1        -0.0 +j      0.0        0.0      -0.0000
   TERMINAL TOTAL ............    -0.0 +j      0.0        0.0      -0.0000

ELEMENT = "Line.LN5531255-3"
N1147857                 1         0.0 +j     -0.1        0.1      -0.0000
   TERMINAL TOTAL ............     0.0 +j     -0.1        0.1      -0.0000
M1009742                 1        -0.0 +j      0.1        0.1      -0.0000
   TERMINAL TOTAL ............    -0.0 +j      0.1        0.1      -0.0000

ELEMENT = "Line.LN5926308-2"
Q14412                   1        -0.0 +j     -0.5        0.5       0.0002
Q14412                   2        -0.0 +j     -0.5        0.5       0.0002
Q14412                   3         0.0 +j     -0.3        0.3      -0.0008
   TERMINAL TOTAL ............     0.0 +j     -1.2        1.2      -0.0000
M1047325                 1        -0.0 +j      0.5        0.5      -0.0002
M1047325                 2        -0.0 +j      0.4        0.4      -0.0002
M1047325                 3         0.0 +j      0.3        0.3       0.0008
   TERMINAL TOTAL ............    -0.0 +j      1.2        1.2      -0.0000

ELEMENT = "Line.LN5683856-3"
N1139263                 1         0.0 +j     -0.0        0.0      -0.0000
   TERMINAL TOTAL ............     0.0 +j     -0.0        0.0      -0.0000
L3048227                 1        -0.0 +j      0.0        0.0      -0.0000
   TERMINAL TOTAL ............    -0.0 +j      0.0        0.0      -0.0000

ELEMENT = "Line.LN6171502-1"
P827506                  1         0.0 +j     -0.0        0.0      -0.0000
   TERMINAL TOTAL ............     0.0 +j     -0.0        0.0      -0.0000
M1069469                 1        -0.0 +j      0.0        0.0      -0.0000
   TERMINAL TOTAL ............    -0.0 +j      0.0        0.0      -0.0000

ELEMENT = "Line.LN5593228-1"
M1027019                 2         0.0 +j     -0.0        0.0      -0.0000
   TERMINAL TOTAL ............     0.0 +j     -0.0        0.0      -0.0000
L2785522                 2        -0.0 +j     -0.0        0.0       0.0000
   TERMINAL TOTAL ............    -0.0 +j     -0.0        0.0       0.0000

ELEMENT = "Line.LN6380800-1"
L3216338                 2         0.0 +j     -0.0        0.0      -0.0000
   TERMINAL TOTAL ............     0.0 +j     -0.0        0.0      -0.0000
L2973146                 2        -0.0 +j     -0.0        0.0       0.0000
   TERMINAL TOTAL ............    -0.0 +j     -0.0        0.0       0.0000

ELEMENT = "Line.LN6199525-2"
M3037452                 1         0.0 +j     -0.0        0.0      -0.0000
   TERMINAL TOTAL ............     0.0 +j     -0.0        0.0      -0.0000
L2973164                 1        -0.0 +j     -0.0        0.0       0.0000
   TERMINAL TOTAL ............    -0.0 +j     -0.0        0.0       0.0000

ELEMENT = "Line.LN5772710-2"
L3120376                 1         0.0 +j     -0.0        0.0      -0.0000
   TERMINAL TOTAL ............     0.0 +j     -0.0        0.0      -0.0000
M1026925                 1        -0.0 +j      0.0        0.0      -0.0000
   TERMINAL TOTAL ............    -0.0 +j      0.0        0.0      -0.0000

ELEMENT = "Line.LN8961760-1"
M1047612                 3         0.0 +j     -0.0        0.0      -0.0000
   TERMINAL TOTAL ............     0.0 +j     -0.0        0.0      -0.0000
P828360                  3        -0.0 +j      0.0        0.0      -0.0000
   TERMINAL TOTAL ............    -0.0 +j      0.0        0.0      -0.0000

ELEMENT = "Line.LN6047556-1"
M1089195                 3         0.0 +j     -0.0        0.0      -0.0000
   TERMINAL TOTAL ............     0.0 +j     -0.0        0.0      -0.0000
L3141393                 3        -0.0 +j     -0.0        0.0       0.0000
   TERMINAL TOTAL ............    -0.0 +j     -0.0        0.0       0.0000

ELEMENT = "Line.LN6138603-1"
...